PDE 2011 11 6 8 8 20.80 54.02000 -162.49000 33.80000 5.7 5.7 2011-11-06T08:08:20.800000Z_6
event name:          00000
time shift:        0.00000
half duration:     0.00000
latitude:         54.02000
longitude:      -162.49000
depth:            33.80000
Mrr:              2.91e+24
Mtt:             -2.46e+24
Mpp:             -4.47e+23
Mrt:              2.52e+24
Mrp:              1.26e+24
Mtp:             -1.58e+24
